module/powerflow/autotest/test_fuse_switched_out_of_service.glm
//Script-generated taxonomy feeder
//Has a fuse downstream a switch, that when the switch is opened, would promptly "re-enable itself"
//This caused NR to fail.
//This file running constitutes success (no asserts).  If the fuse re-enables itself, the file fails the autotest
//This basically tests what was issue #945


//#set profiler=1;
clock {
     timezone EST+5EDT;
     starttime '2009-07-01 10:00:00';
     stoptime '2009-07-01 10:05:00';
}
module tape;
module powerflow {
     solver_method NR;
};

// Random outage generation
module reliability{
    maximum_event_length 36000;	//Maximum length of events in seconds (manual events are excluded from this limit)
    report_event_log true;
}

object fault_check {
	name substation_switch_fault_object;
	check_mode ONCHANGE;
	eventgen_object event_loadshed1;
	 output_filename test_connect.txt;
	 grid_association true;
	 strictly_radial false;
}

object eventgen {
	name event_loadshed1;
//	max_outage_length 360000;
//	max_simultaneous_faults 1;
	fault_type "SW-B";
//	controlled_switch "C1_R2-12-47-2_switch_12";
//	switch_state 1;
	manual_outages "C1_R2-12-47-2_fuse_25,2009-07-01 10:00:30,2009-07-01 11:30:00";   //C1_R2-12-47-2_switch_12 C1_R2-12-47-2_fuse_25  C1_R2-12-47-2_ol_169
}

//Configurations

object regulator_configuration {     
       
      name C1_feeder_reg_cfg;     
      Control OUTPUT_VOLTAGE;     
      band_center 7500.0;     
      band_width 120;     
      connect_type WYE_WYE;     
      time_delay 30;     
      raise_taps 16;     
      lower_taps 16;     
      regulation 0.10;     
      tap_pos_A 0;     
      tap_pos_B 0;     
      tap_pos_C 0;     
}       

object regulator_configuration {     
       
      name C1_voltage_reg_cfg;     
      Control OUTPUT_VOLTAGE;     
      band_center 7500.0;     
      band_width 120;     
      connect_type WYE_WYE;     
      time_delay 30;     
      raise_taps 16;     
      lower_taps 16;     
      regulation 0.10;     
      tap_pos_A 0;     
      tap_pos_B 0;     
      tap_pos_C 0;     
}       

object line_configuration {     
      name C1_line_configuration_24;     
      conductor_A C1_overhead_line_conductor_2;     
      conductor_N C1_overhead_line_conductor_2;     
      spacing C1_line_spacing_17;     
}       

object line_configuration {     
      name C1_line_configuration_25;     
      conductor_A C1_overhead_line_conductor_3;     
      conductor_B C1_overhead_line_conductor_3;     
      conductor_C C1_overhead_line_conductor_3;     
      conductor_N C1_overhead_line_conductor_3;     
      spacing C1_line_spacing_18;     
}       

object line_configuration {     
      name C1_line_configuration_26;     
      conductor_A C1_overhead_line_conductor_4;     
      conductor_N C1_overhead_line_conductor_4;     
      spacing C1_line_spacing_17;     
}       

object line_configuration {     
      name C1_line_configuration_27;     
      conductor_A C1_overhead_line_conductor_5;     
      conductor_N C1_overhead_line_conductor_5;     
      spacing C1_line_spacing_17;     
}       

object line_configuration {     
      name C1_line_configuration_28;     
      conductor_C C1_overhead_line_conductor_2;     
      conductor_N C1_overhead_line_conductor_2;     
      spacing C1_line_spacing_19;     
}       

object line_configuration {     
      name C1_line_configuration_29;     
      conductor_C C1_overhead_line_conductor_2;     
      conductor_N C1_overhead_line_conductor_2;     
      spacing C1_line_spacing_19;     
}       

object line_configuration {     
      name C1_line_configuration_30;     
      conductor_A C1_overhead_line_conductor_6;     
      conductor_B C1_overhead_line_conductor_6;     
      conductor_C C1_overhead_line_conductor_6;     
      conductor_N C1_overhead_line_conductor_6;     
      spacing C1_line_spacing_18;     
}       

object line_configuration {     
      name C1_line_configuration_31;     
      conductor_B C1_underground_line_conductor_7;     
      conductor_N C1_underground_line_conductor_7;     
      spacing C1_line_spacing_20;     
}       

object line_configuration {     
      name C1_line_configuration_32;     
      conductor_A C1_overhead_line_conductor_8;     
      conductor_B C1_overhead_line_conductor_8;     
      conductor_C C1_overhead_line_conductor_8;     
      conductor_N C1_overhead_line_conductor_8;     
      spacing C1_line_spacing_18;     
}       

object line_configuration {     
      name C1_line_configuration_33;     
      conductor_A C1_underground_line_conductor_9;     
      conductor_B C1_underground_line_conductor_9;     
      conductor_C C1_underground_line_conductor_9;     
      conductor_N C1_underground_line_conductor_9;     
      spacing C1_line_spacing_18;     
}       

object line_configuration {     
      name C1_line_configuration_34;     
      conductor_C C1_underground_line_conductor_7;     
      conductor_N C1_underground_line_conductor_7;     
      spacing C1_line_spacing_19;     
}       

object line_configuration {     
      name C1_line_configuration_35;     
      conductor_B C1_overhead_line_conductor_2;     
      conductor_N C1_overhead_line_conductor_2;     
      spacing C1_line_spacing_20;     
}       

object line_configuration {     
      name C1_line_configuration_36;     
      conductor_C C1_overhead_line_conductor_4;     
      conductor_N C1_overhead_line_conductor_4;     
      spacing C1_line_spacing_19;     
}       

object line_configuration {     
      name C1_line_configuration_37;     
      conductor_B C1_overhead_line_conductor_2;     
      conductor_C C1_overhead_line_conductor_2;     
      conductor_N C1_overhead_line_conductor_2;     
      spacing C1_line_spacing_21;     
}       

object line_configuration {     
      name C1_line_configuration_38;     
      conductor_A C1_underground_line_conductor_7;     
      conductor_B C1_underground_line_conductor_7;     
      conductor_C C1_underground_line_conductor_7;     
      conductor_N C1_underground_line_conductor_7;     
      spacing C1_line_spacing_18;     
}       

object line_configuration {     
      name C1_line_configuration_39;     
      conductor_A C1_overhead_line_conductor_2;     
      conductor_B C1_overhead_line_conductor_2;     
      conductor_C C1_overhead_line_conductor_2;     
      conductor_N C1_overhead_line_conductor_2;     
      spacing C1_line_spacing_18;     
}       

object line_configuration {     
      name C1_line_configuration_40;     
      conductor_A C1_overhead_line_conductor_10;     
      conductor_B C1_overhead_line_conductor_10;     
      conductor_C C1_overhead_line_conductor_10;     
      conductor_N C1_overhead_line_conductor_10;     
      spacing C1_line_spacing_18;     
}       

object line_configuration {     
      name C1_line_configuration_41;     
      conductor_A C1_overhead_line_conductor_11;     
      conductor_N C1_overhead_line_conductor_11;     
      spacing C1_line_spacing_17;     
}       

object line_configuration {     
      name C1_line_configuration_42;     
      conductor_A C1_overhead_line_conductor_11;     
      conductor_N C1_overhead_line_conductor_11;     
      spacing C1_line_spacing_17;     
}       

object line_configuration {     
      name C1_line_configuration_43;     
      conductor_B C1_overhead_line_conductor_2;     
      conductor_N C1_overhead_line_conductor_2;     
      spacing C1_line_spacing_20;     
}       

object line_configuration {     
      name C1_line_configuration_44;     
      conductor_A C1_overhead_line_conductor_2;     
      conductor_B C1_overhead_line_conductor_2;     
      conductor_N C1_overhead_line_conductor_2;     
      spacing C1_line_spacing_22;     
}       

object line_configuration {     
      name C1_line_configuration_45;     
      conductor_A C1_overhead_line_conductor_12;     
      conductor_B C1_overhead_line_conductor_12;     
      conductor_C C1_overhead_line_conductor_12;     
      conductor_N C1_overhead_line_conductor_12;     
      spacing C1_line_spacing_18;     
}       

object line_configuration {     
      name C1_line_configuration_46;     
      conductor_A C1_overhead_line_conductor_12;     
      conductor_B C1_overhead_line_conductor_12;     
      conductor_C C1_overhead_line_conductor_12;     
      conductor_N C1_overhead_line_conductor_12;     
      spacing C1_line_spacing_18;     
}       

object line_configuration {     
      name C1_line_configuration_47;     
      conductor_A C1_overhead_line_conductor_11;     
      conductor_C C1_overhead_line_conductor_11;     
      conductor_N C1_overhead_line_conductor_11;     
      spacing C1_line_spacing_23;     
}       

object line_configuration {     
      name C1_line_configuration_48;     
      conductor_C C1_overhead_line_conductor_4;     
      conductor_N C1_overhead_line_conductor_4;     
      spacing C1_line_spacing_19;     
}       

object line_configuration {     
      name C1_line_configuration_49;     
      conductor_C C1_overhead_line_conductor_4;     
      conductor_N C1_overhead_line_conductor_4;     
      spacing C1_line_spacing_19;     
}       

object line_configuration {     
      name C1_line_configuration_50;     
      conductor_B C1_overhead_line_conductor_5;     
      conductor_N C1_overhead_line_conductor_5;     
      spacing C1_line_spacing_20;     
}       

object line_configuration {     
      name C1_line_configuration_51;     
      conductor_B C1_overhead_line_conductor_10;     
      conductor_N C1_overhead_line_conductor_10;     
      spacing C1_line_spacing_20;     
}       

object line_configuration {     
      name C1_line_configuration_52;     
      conductor_A C1_overhead_line_conductor_2;     
      conductor_B C1_overhead_line_conductor_2;     
      conductor_C C1_overhead_line_conductor_2;     
      conductor_N C1_overhead_line_conductor_2;     
      spacing C1_line_spacing_18;     
}       

object line_configuration {     
      name C1_line_configuration_53;     
      conductor_A C1_overhead_line_conductor_6;     
      conductor_B C1_overhead_line_conductor_6;     
      conductor_C C1_overhead_line_conductor_6;     
      conductor_N C1_overhead_line_conductor_6;     
      spacing C1_line_spacing_18;     
}       

object line_configuration {     
      name C1_line_configuration_54;     
      conductor_A C1_overhead_line_conductor_11;     
      conductor_N C1_overhead_line_conductor_11;     
      spacing C1_line_spacing_17;     
}       

object line_configuration {     
      name C1_line_configuration_55;     
      conductor_A C1_overhead_line_conductor_11;     
      conductor_N C1_overhead_line_conductor_11;     
      spacing C1_line_spacing_17;     
}       

object line_configuration {     
      name C1_line_configuration_56;     
      conductor_B C1_overhead_line_conductor_11;     
      conductor_N C1_overhead_line_conductor_11;     
      spacing C1_line_spacing_20;     
}       

object line_configuration {     
      name C1_line_configuration_57;     
      conductor_A C1_overhead_line_conductor_2;     
      conductor_C C1_overhead_line_conductor_2;     
      conductor_N C1_overhead_line_conductor_2;     
      spacing C1_line_spacing_23;     
}       

object line_configuration {     
      name C1_line_configuration_58;     
      conductor_A C1_overhead_line_conductor_5;     
      conductor_B C1_overhead_line_conductor_5;     
      conductor_C C1_overhead_line_conductor_5;     
      conductor_N C1_overhead_line_conductor_5;     
      spacing C1_line_spacing_18;     
}       

object line_configuration {     
      name C1_line_configuration_59;     
      conductor_B C1_overhead_line_conductor_2;     
      conductor_N C1_overhead_line_conductor_2;     
      spacing C1_line_spacing_20;     
}       

object line_configuration {     
      name C1_line_configuration_60;     
      conductor_C C1_underground_line_conductor_13;     
      conductor_N C1_underground_line_conductor_13;     
      spacing C1_line_spacing_19;     
}       

object line_configuration {     
      name C1_line_configuration_61;     
      conductor_B C1_overhead_line_conductor_4;     
      conductor_N C1_overhead_line_conductor_4;     
      spacing C1_line_spacing_20;     
}       

object line_configuration {     
      name C1_line_configuration_62;     
      conductor_A C1_overhead_line_conductor_2;     
      conductor_N C1_overhead_line_conductor_2;     
      spacing C1_line_spacing_17;     
}       

object line_configuration {     
      name C1_line_configuration_63;     
      conductor_C C1_overhead_line_conductor_5;     
      conductor_N C1_overhead_line_conductor_5;     
      spacing C1_line_spacing_19;     
}       

object line_configuration {     
      name C1_line_configuration_64;     
      conductor_A C1_overhead_line_conductor_4;     
      conductor_N C1_overhead_line_conductor_4;     
      spacing C1_line_spacing_17;     
}       

object line_spacing {     
      name C1_line_spacing_17;     
      distance_AN 0.0 in;    
}       

object line_spacing {     
      name C1_line_spacing_18;     
      distance_AB 0.0 in;    
      distance_BC 0.0 in;    
      distance_AC 0.0 in;    
      distance_AN 0.0 in;    
      distance_BN 0.0 in;    
      distance_CN 0.0 in;    
}       

object line_spacing {     
      name C1_line_spacing_19;     
      distance_CN 0.0 in;    
}       

object line_spacing {     
      name C1_line_spacing_20;     
      distance_BN 0.0 in;    
}       

object line_spacing {     
      name C1_line_spacing_21;     
      distance_BC 0.0 in;    
      distance_BN 0.0 in;    
      distance_CN 0.0 in;    
}       

object line_spacing {     
      name C1_line_spacing_22;     
      distance_AB 0.0 in;    
      distance_AN 0.0 in;    
      distance_BN 0.0 in;    
}       

object line_spacing {     
      name C1_line_spacing_23;     
      distance_AC 0.0 in;    
      distance_AN 0.0 in;    
      distance_CN 0.0 in;    
}       

object overhead_line_conductor {     
      name C1_overhead_line_conductor_2;     
      //name 2 ACSR;    
      rating.summer.continuous 180.0;     
      geometric_mean_radius 0.00418 ft;    
      resistance 1.62570;     
}       

object overhead_line_conductor {     
      name C1_overhead_line_conductor_3;     
      //name 394 AAAC;    
      rating.summer.continuous 533.0;     
      geometric_mean_radius 0.02280 ft;    
      resistance 0.25800;     
}       

object overhead_line_conductor {     
      name C1_overhead_line_conductor_4;     
      //name 4 CU;    
      rating.summer.continuous 149.0;     
      geometric_mean_radius 0.00663 ft;    
      resistance 1.50000;     
}       

object overhead_line_conductor {     
      name C1_overhead_line_conductor_5;     
      //name 2/0 AAC;    
      rating.summer.continuous 270.0;     
      geometric_mean_radius 0.01350 ft;    
      resistance 0.13200;     
}       

object overhead_line_conductor {     
      name C1_overhead_line_conductor_6;     
      //name 559.5 AAAC;    
      rating.summer.continuous 663.0;     
      geometric_mean_radius 0.02710 ft;    
      resistance 0.03690;     
}       

object overhead_line_conductor {     
      name C1_overhead_line_conductor_8;     
      //name 336 ACSR;    
      rating.summer.continuous 530.0;     
      geometric_mean_radius 0.02300 ft;    
      resistance 0.30300;     
}       

object overhead_line_conductor {     
      name C1_overhead_line_conductor_10;     
      //name 3/0 ACSR;    
      rating.summer.continuous 300.0;     
      geometric_mean_radius 0.00600 ft;    
      resistance 0.63800;     
}       

object overhead_line_conductor {     
      name C1_overhead_line_conductor_11;     
      //name 2 AAAC;    
      rating.summer.continuous 197.0;     
      geometric_mean_radius 0.00883 ft;    
      resistance 1.51970;     
}       

object overhead_line_conductor {     
      name C1_overhead_line_conductor_12;     
      //name 266.8 AAC;    
      rating.summer.continuous 388.0;     
      geometric_mean_radius 0.02020 ft;    
      resistance 0.06570;     
}       

object overhead_line_conductor {     
      name C1_overhead_line_conductor_14;     
      //name 123.3 AAAC;    
      rating.summer.continuous 256.0;     
      geometric_mean_radius 0.01200 ft;    
      resistance 0.16600;     
}       

object overhead_line_conductor {     
      name C1_overhead_line_conductor_15;     
      //name 4/0 AAC;    
      rating.summer.continuous 360.0;     
      geometric_mean_radius 0.01033 ft;    
      resistance 0.47600;     
}       

object overhead_line_conductor {     
      name C1_overhead_line_conductor_16;     
      //name 2 CU;    
      rating.summer.continuous 204.0;     
      geometric_mean_radius 0.00836 ft;    
      resistance 0.94500;     
}       

object transformer_configuration {     
      name C1_transformer_configuration_1101;     
      connect_type SINGLE_PHASE_CENTER_TAPPED;     
      install_type POLETOP;     
      primary_voltage 7200 V;    
      secondary_voltage 120 V;    
      power_rating 25.0;     
      powerA_rating 25.0;     
      resistance 0.00600;     
      reactance 0.00400;     
      shunt_impedance 339.610+320.666j;     
}       

object transformer_configuration {     
      name C1_transformer_configuration_1102;     
      connect_type SINGLE_PHASE_CENTER_TAPPED;     
      install_type POLETOP;     
      primary_voltage 7200 V;    
      secondary_voltage 120 V;    
      power_rating 5;     
      powerA_rating 5;     
      resistance 0.015;     
      reactance 0.01;     
      shunt_impedance 297.890+294.716j;     
}       

object transformer_configuration {     
      name C1_transformer_configuration_1103;     
      connect_type SINGLE_PHASE_CENTER_TAPPED;     
      install_type POLETOP;     
      primary_voltage 7200 V;    
      secondary_voltage 120 V;    
      power_rating 50.0;     
      powerA_rating 50.0;     
      resistance 0.00300;     
      reactance 0.00200;     
      shunt_impedance 391.760+383.331j;     
}       

object transformer_configuration {     
      name C1_transformer_configuration_1104;     
      connect_type SINGLE_PHASE_CENTER_TAPPED;     
      install_type PADMOUNT;     
      primary_voltage 7200 V;    
      secondary_voltage 120 V;    
      power_rating 25.0;     
      powerA_rating 25.0;     
      resistance 0.00600;     
      reactance 0.00400;     
      shunt_impedance 339.610+355.690j;     
}       

object transformer_configuration {     
      name C1_transformer_configuration_1105;     
      connect_type SINGLE_PHASE_CENTER_TAPPED;     
      install_type PADMOUNT;     
      primary_voltage 7200 V;    
      secondary_voltage 120 V;    
      power_rating 50.0;     
      powerA_rating 50.0;     
      resistance 0.00300;     
      reactance 0.00200;     
      shunt_impedance 391.760+445.260j;     
}       

object transformer_configuration {     
      name C1_transformer_configuration_1106;     
      connect_type SINGLE_PHASE_CENTER_TAPPED;     
      install_type POLETOP;     
      primary_voltage 7200 V;    
      secondary_voltage 120 V;    
      power_rating 175.0;     
      powerA_rating 175.0;     
      resistance 0.00086;     
      reactance 0.00057;     
      shunt_impedance 652.510+545.642j;     
}       

object transformer_configuration {     
      name C1_transformer_configuration_1107;     
      connect_type SINGLE_PHASE_CENTER_TAPPED;     
      install_type POLETOP;     
      primary_voltage 7200 V;    
      secondary_voltage 120 V;    
      power_rating 37.5;     
      powerA_rating 37.5;     
      resistance 0.00400;     
      reactance 0.00267;     
      shunt_impedance 365.685+439.690j;     
}       

object transformer_configuration {     
      name C1_transformer_configuration_1108;     
      connect_type SINGLE_PHASE_CENTER_TAPPED;     
      install_type PADMOUNT;     
      primary_voltage 7200 V;    
      secondary_voltage 120 V;    
      power_rating 15.0;     
      powerA_rating 15.0;     
      resistance 0.01000;     
      reactance 0.00667;     
      shunt_impedance 318.750+343.542j;     
}       

object transformer_configuration {     
      name C1_transformer_configuration_1109;     
      connect_type SINGLE_PHASE_CENTER_TAPPED;     
      install_type POLETOP;     
      primary_voltage 7200 V;    
      secondary_voltage 120 V;    
      power_rating 10.0;     
      powerA_rating 10.0;     
      resistance 0.015;     
      reactance 0.01;     
      shunt_impedance 308.320+291.396j;     
}       

object transformer_configuration {     
      name C1_transformer_configuration_1110;     
      connect_type SINGLE_PHASE_CENTER_TAPPED;     
      install_type POLETOP;     
      primary_voltage 7200 V;    
      secondary_voltage 120 V;    
      power_rating 15.0;     
      powerA_rating 15.0;     
      resistance 0.01000;     
      reactance 0.00667;     
      shunt_impedance 318.750+314.733j;     
}       

object transformer_configuration {     
      name C1_transformer_configuration_1111;     
      connect_type SINGLE_PHASE_CENTER_TAPPED;     
      install_type POLETOP;     
      primary_voltage 7200 V;    
      secondary_voltage 120 V;    
      power_rating 100.0;     
      powerA_rating 100.0;     
      resistance 0.00150;     
      reactance 0.00100;     
      shunt_impedance 496.060+510.921j;     
}       

object transformer_configuration {     
      name C1_transformer_configuration_1112;     
      connect_type SINGLE_PHASE_CENTER_TAPPED;     
      install_type POLETOP;     
      primary_voltage 7200 V;    
      secondary_voltage 120 V;    
      power_rating 30.0;     
      powerA_rating 30.0;     
      resistance 0.00500;     
      reactance 0.00333;     
      shunt_impedance 350.040+360.407j;     
}       

object transformer_configuration {     
      name C1_transformer_configuration_1113;     
      connect_type SINGLE_PHASE_CENTER_TAPPED;     
      install_type POLETOP;     
      primary_voltage 7200 V;    
      secondary_voltage 120 V;    
      power_rating 75.0;     
      powerA_rating 75.0;     
      resistance 0.00200;     
      reactance 0.00133;     
      shunt_impedance 443.910+497.214j;     
}       

object transformer_configuration {     
      name C1_transformer_configuration_1114;     
      connect_type SINGLE_PHASE_CENTER_TAPPED;     
      install_type PADMOUNT;     
      primary_voltage 7200 V;    
      secondary_voltage 120 V;    
      power_rating 10.0;     
      powerA_rating 10.0;     
      resistance 0.015;     
      reactance 0.01;     
      shunt_impedance 308.320+341.932j;     
}       

object transformer_configuration {     
      name C1_transformer_configuration_1115;     
      connect_type SINGLE_PHASE_CENTER_TAPPED;     
      install_type PADMOUNT;     
      primary_voltage 7200 V;    
      secondary_voltage 120 V;    
      power_rating 125.0;     
      powerA_rating 125.0;     
      resistance 0.00120;     
      reactance 0.00080;     
      shunt_impedance 548.210+528.546j;     
}       

object transformer_configuration {     
      name C1_transformer_configuration_1116;     
      connect_type SINGLE_PHASE_CENTER_TAPPED;     
      install_type PADMOUNT;     
      primary_voltage 7200 V;    
      secondary_voltage 120 V;    
      power_rating 100.0;     
      powerA_rating 100.0;     
      resistance 0.00150;     
      reactance 0.00100;     
      shunt_impedance 496.060+489.615j;     
}       

object transformer_configuration {     
      name C1_transformer_configuration_1117;     
      connect_type SINGLE_PHASE_CENTER_TAPPED;     
      install_type PADMOUNT;     
      primary_voltage 7200 V;    
      secondary_voltage 120 V;    
      power_rating 5;     
      powerA_rating 5;     
      resistance 0.015;     
      reactance 0.01;     
      shunt_impedance 297.890+319.747j;     
}       

object transformer_configuration {     
      name C1_transformer_configuration_1118;     
      connect_type SINGLE_PHASE_CENTER_TAPPED;     
      install_type POLETOP;     
      primary_voltage 7200 V;    
      secondary_voltage 120 V;    
      power_rating 87.5;     
      powerA_rating 87.5;     
      resistance 0.00171;     
      reactance 0.00114;     
      shunt_impedance 469.985+475.640j;     
}       

object transformer_configuration {     
      name C1_transformer_configuration_1119;     
      connect_type SINGLE_PHASE_CENTER_TAPPED;     
      install_type POLETOP;     
      primary_voltage 7200 V;    
      secondary_voltage 120 V;    
      power_rating 5;     
      powerB_rating 5;     
      resistance 0.015;     
      reactance 0.01;     
      shunt_impedance 297.890+331.740j;     
}       

object transformer_configuration {     
      name C1_transformer_configuration_1120;     
      connect_type SINGLE_PHASE_CENTER_TAPPED;     
      install_type POLETOP;     
      primary_voltage 7200 V;    
      secondary_voltage 120 V;    
      power_rating 50.0;     
      powerB_rating 50.0;     
      resistance 0.00300;     
      reactance 0.00200;     
      shunt_impedance 391.760+364.855j;     
}       

object transformer_configuration {     
      name C1_transformer_configuration_1121;     
      connect_type SINGLE_PHASE_CENTER_TAPPED;     
      install_type POLETOP;     
      primary_voltage 7200 V;    
      secondary_voltage 120 V;    
      power_rating 25.0;     
      powerB_rating 25.0;     
      resistance 0.00600;     
      reactance 0.00400;     
      shunt_impedance 339.610+355.629j;     
}       

object transformer_configuration {     
      name C1_transformer_configuration_1122;     
      connect_type SINGLE_PHASE_CENTER_TAPPED;     
      install_type PADMOUNT;     
      primary_voltage 7200 V;    
      secondary_voltage 120 V;    
      power_rating 50.0;     
      powerB_rating 50.0;     
      resistance 0.00300;     
      reactance 0.00200;     
      shunt_impedance 391.760+403.056j;     
}       

object transformer_configuration {     
      name C1_transformer_configuration_1123;     
      connect_type SINGLE_PHASE_CENTER_TAPPED;     
      install_type PADMOUNT;     
      primary_voltage 7200 V;    
      secondary_voltage 120 V;    
      power_rating 25.0;     
      powerB_rating 25.0;     
      resistance 0.00600;     
      reactance 0.00400;     
      shunt_impedance 339.610+386.879j;     
}       

object transformer_configuration {     
      name C1_transformer_configuration_1124;     
      connect_type SINGLE_PHASE_CENTER_TAPPED;     
      install_type POLETOP;     
      primary_voltage 7200 V;    
      secondary_voltage 120 V;    
      power_rating 175.0;     
      powerB_rating 175.0;     
      resistance 0.00086;     
      reactance 0.00057;     
      shunt_impedance 652.510+564.715j;     
}       

object transformer_configuration {     
      name C1_transformer_configuration_1125;     
      connect_type SINGLE_PHASE_CENTER_TAPPED;     
      install_type POLETOP;     
      primary_voltage 7200 V;    
      secondary_voltage 120 V;    
      power_rating 15.0;     
      powerB_rating 15.0;     
      resistance 0.01000;     
      reactance 0.00667;     
      shunt_impedance 318.750+318.774j;     
}       

object transformer_configuration {     
      name C1_transformer_configuration_1126;     
      connect_type SINGLE_PHASE_CENTER_TAPPED;     
      install_type POLETOP;     
      primary_voltage 7200 V;    
      secondary_voltage 120 V;    
      power_rating 37.5;     
      powerB_rating 37.5;     
      resistance 0.00400;     
      reactance 0.00267;     
      shunt_impedance 365.685+367.641j;     
}       

object transformer_configuration {     
      name C1_transformer_configuration_1127;     
      connect_type SINGLE_PHASE_CENTER_TAPPED;     
      install_type POLETOP;     
      primary_voltage 7200 V;    
      secondary_voltage 120 V;    
      power_rating 300.0;     
      powerB_rating 300.0;     
      resistance 0.00050;     
      reactance 0.00033;     
      shunt_impedance 913.260+699.383j;     
}       

object transformer_configuration {     
      name C1_transformer_configuration_1128;     
      connect_type SINGLE_PHASE_CENTER_TAPPED;     
      install_type POLETOP;     
      primary_voltage 7200 V;    
      secondary_voltage 120 V;    
      power_rating 75.0;     
      powerB_rating 75.0;     
      resistance 0.00200;     
      reactance 0.00133;     
      shunt_impedance 443.910+499.314j;     
}       

object transformer_configuration {     
      name C1_transformer_configuration_1129;     
      connect_type SINGLE_PHASE_CENTER_TAPPED;     
      install_type POLETOP;     
      primary_voltage 7200 V;    
      secondary_voltage 120 V;    
      power_rating 125.0;     
      powerB_rating 125.0;     
      resistance 0.00120;     
      reactance 0.00080;     
      shunt_impedance 548.210+702.215j;     
}       

object transformer_configuration {     
      name C1_transformer_configuration_1130;     
      connect_type SINGLE_PHASE_CENTER_TAPPED;     
      install_type POLETOP;     
      primary_voltage 7200 V;    
      secondary_voltage 120 V;    
      power_rating 100.0;     
      powerB_rating 100.0;     
      resistance 0.00150;     
      reactance 0.00100;     
      shunt_impedance 496.060+484.542j;     
}       

object transformer_configuration {     
      name C1_transformer_configuration_1131;     
      connect_type SINGLE_PHASE_CENTER_TAPPED;     
      install_type POLETOP;     
      primary_voltage 7200 V;    
      secondary_voltage 120 V;    
      power_rating 10.0;     
      powerB_rating 10.0;     
      resistance 0.015;     
      reactance 0.01;     
      shunt_impedance 308.320+317.170j;     
}       

object transformer_configuration {     
      name C1_transformer_configuration_1132;     
      connect_type SINGLE_PHASE_CENTER_TAPPED;     
      install_type PADMOUNT;     
      primary_voltage 7200 V;    
      secondary_voltage 120 V;    
      power_rating 5;     
      powerB_rating 5;     
      resistance 0.015;     
      reactance 0.01;     
      shunt_impedance 297.890+284.050j;     
}       

object transformer_configuration {     
      name C1_transformer_configuration_1133;     
      connect_type SINGLE_PHASE_CENTER_TAPPED;     
      install_type PADMOUNT;     
      primary_voltage 7200 V;    
      secondary_voltage 120 V;    
      power_rating 75.0;     
      powerB_rating 75.0;     
      resistance 0.00200;     
      reactance 0.00133;     
      shunt_impedance 443.910+460.970j;     
}       

object transformer_configuration {     
      name C1_transformer_configuration_1134;     
      connect_type SINGLE_PHASE_CENTER_TAPPED;     
      install_type POLETOP;     
      primary_voltage 7200 V;    
      secondary_voltage 120 V;    
      power_rating 30.0;     
      powerB_rating 30.0;     
      resistance 0.00500;     
      reactance 0.00333;     
      shunt_impedance 350.040+336.745j;     
}       

object transformer_configuration {     
      name C1_transformer_configuration_1135;     
      connect_type SINGLE_PHASE_CENTER_TAPPED;     
      install_type POLETOP;     
      primary_voltage 7200 V;    
      secondary_voltage 120 V;    
      power_rating 15.0;     
      powerC_rating 15.0;     
      resistance 0.01000;     
      reactance 0.00667;     
      shunt_impedance 318.750+315.506j;     
}       

object transformer_configuration {     
      name C1_transformer_configuration_1136;     
      connect_type SINGLE_PHASE_CENTER_TAPPED;     
      install_type POLETOP;     
      primary_voltage 7200 V;    
      secondary_voltage 120 V;    
      power_rating 25.0;     
      powerC_rating 25.0;     
      resistance 0.00600;     
      reactance 0.00400;     
      shunt_impedance 339.610+394.564j;     
}       

object transformer_configuration {     
      name C1_transformer_configuration_1137;     
      connect_type SINGLE_PHASE_CENTER_TAPPED;     
      install_type POLETOP;     
      primary_voltage 7200 V;    
      secondary_voltage 120 V;    
      power_rating 100.0;     
      powerC_rating 100.0;     
      resistance 0.00150;     
      reactance 0.00100;     
      shunt_impedance 496.060+454.032j;     
}       

object transformer_configuration {     
      name C1_transformer_configuration_1138;     
      connect_type SINGLE_PHASE_CENTER_TAPPED;     
      install_type POLETOP;     
      primary_voltage 7200 V;    
      secondary_voltage 120 V;    
      power_rating 50.0;     
      powerC_rating 50.0;     
      resistance 0.00300;     
      reactance 0.00200;     
      shunt_impedance 391.760+369.199j;     
}       

object transformer_configuration {     
      name C1_transformer_configuration_1139;     
      connect_type SINGLE_PHASE_CENTER_TAPPED;     
      install_type PADMOUNT;     
      primary_voltage 7200 V;    
      secondary_voltage 120 V;    
      power_rating 50.0;     
      powerC_rating 50.0;     
      resistance 0.00300;     
      reactance 0.00200;     
      shunt_impedance 391.760+388.786j;     
}       

object transformer_configuration {     
      name C1_transformer_configuration_1140;     
      connect_type SINGLE_PHASE_CENTER_TAPPED;     
      install_type PADMOUNT;     
      primary_voltage 7200 V;    
      secondary_voltage 120 V;    
      power_rating 37.5;     
      powerC_rating 37.5;     
      resistance 0.00400;     
      reactance 0.00267;     
      shunt_impedance 365.685+360.841j;     
}       

object transformer_configuration {     
      name C1_transformer_configuration_1141;     
      connect_type SINGLE_PHASE_CENTER_TAPPED;     
      install_type PADMOUNT;     
      primary_voltage 7200 V;    
      secondary_voltage 120 V;    
      power_rating 5;     
      powerC_rating 5;     
      resistance 0.015;     
      reactance 0.01;     
      shunt_impedance 297.890+340.766j;     
}       

object transformer_configuration {     
      name C1_transformer_configuration_1142;     
      connect_type SINGLE_PHASE_CENTER_TAPPED;     
      install_type POLETOP;     
      primary_voltage 7200 V;    
      secondary_voltage 120 V;    
      power_rating 175.0;     
      powerC_rating 175.0;     
      resistance 0.00086;     
      reactance 0.00057;     
      shunt_impedance 652.510+785.052j;     
}       

object transformer_configuration {     
      name C1_transformer_configuration_1143;     
      connect_type SINGLE_PHASE_CENTER_TAPPED;     
      install_type POLETOP;     
      primary_voltage 7200 V;    
      secondary_voltage 120 V;    
      power_rating 5;     
      powerC_rating 5;     
      resistance 0.015;     
      reactance 0.01;     
      shunt_impedance 297.890+268.750j;     
}       

object transformer_configuration {     
      name C1_transformer_configuration_1144;     
      connect_type SINGLE_PHASE_CENTER_TAPPED;     
      install_type POLETOP;     
      primary_voltage 7200 V;    
      secondary_voltage 120 V;    
      power_rating 200.0;     
      powerC_rating 200.0;     
      resistance 0.00075;     
      reactance 0.00050;     
      shunt_impedance 704.660+659.490j;     
}       

object transformer_configuration {     
      name C1_transformer_configuration_1145;     
      connect_type SINGLE_PHASE_CENTER_TAPPED;     
      install_type POLETOP;     
      primary_voltage 7200 V;    
      secondary_voltage 120 V;    
      power_rating 150.0;     
      powerC_rating 150.0;     
      resistance 0.00100;     
      reactance 0.00067;     
      shunt_impedance 600.360+631.607j;     
}       

object transformer_configuration {     
      name C1_transformer_configuration_1146;     
      connect_type SINGLE_PHASE_CENTER_TAPPED;     
      install_type POLETOP;     
      primary_voltage 7200 V;    
      secondary_voltage 120 V;    
      power_rating 75.0;     
      powerC_rating 75.0;     
      resistance 0.00200;     
      reactance 0.00133;     
      shunt_impedance 443.910+427.010j;     
}       

object transformer_configuration {     
      name C1_transformer_configuration_1147;     
      connect_type SINGLE_PHASE_CENTER_TAPPED;     
      install_type POLETOP;     
      primary_voltage 7200 V;    
      secondary_voltage 120 V;    
      power_rating 125.0;     
      powerC_rating 125.0;     
      resistance 0.00120;     
      reactance 0.00080;     
      shunt_impedance 548.210+657.460j;     
}       

object transformer_configuration {     
      name C1_transformer_configuration_1148;     
      connect_type SINGLE_PHASE_CENTER_TAPPED;     
      install_type PADMOUNT;     
      primary_voltage 7200 V;    
      secondary_voltage 120 V;    
      power_rating 25.0;     
      powerC_rating 25.0;     
      resistance 0.00600;     
      reactance 0.00400;     
      shunt_impedance 339.610+395.166j;     
}       

object transformer_configuration {     
      name C1_transformer_configuration_1149;     
      connect_type SINGLE_PHASE_CENTER_TAPPED;     
      install_type PADMOUNT;     
      primary_voltage 7200 V;    
      secondary_voltage 120 V;    
      power_rating 15.0;     
      powerC_rating 15.0;     
      resistance 0.01000;     
      reactance 0.00667;     
      shunt_impedance 318.750+336.569j;     
}       

object transformer_configuration {     
      name C1_transformer_configuration_1150;     
      connect_type SINGLE_PHASE_CENTER_TAPPED;     
      install_type POLETOP;     
      primary_voltage 7200 V;    
      secondary_voltage 120 V;    
      power_rating 87.5;     
      powerC_rating 87.5;     
      resistance 0.00171;     
      reactance 0.00114;     
      shunt_impedance 469.985+496.475j;     
}       

object transformer_configuration {     
      name C1_transformer_configuration_1151;     
      connect_type SINGLE_PHASE_CENTER_TAPPED;     
      install_type POLETOP;     
      primary_voltage 7200 V;    
      secondary_voltage 120 V;    
      power_rating 300.0;     
      powerC_rating 300.0;     
      resistance 0.00050;     
      reactance 0.00033;     
      shunt_impedance 913.260+882.356j;     
}       

object transformer_configuration {     
      name C1_transformer_configuration_1344;     
      connect_type WYE_WYE;     
      install_type POLETOP;     
      primary_voltage 12470.000 V;    
      secondary_voltage 480 V;    
      power_rating 525.0;     
      powerA_rating 175.0;     
      powerB_rating 175.0;     
      powerC_rating 175.0;     
      resistance 0.00019;     
      reactance 0.00095;     
      shunt_impedance 1382.610+1488.193j;     
}       

object transformer_configuration {     
      name C1_transformer_configuration_1345;     
      connect_type WYE_WYE;     
      install_type POLETOP;     
      primary_voltage 12470.000 V;    
      secondary_voltage 480 V;    
      power_rating 300.0;     
      powerA_rating 100.0;     
      powerB_rating 100.0;     
      powerC_rating 100.0;     
      resistance 0.00033;     
      reactance 0.00167;     
      shunt_impedance 913.260+1016.225j;     
}       

object transformer_configuration {     
      name C1_transformer_configuration_1346;     
      connect_type WYE_WYE;     
      install_type POLETOP;     
      primary_voltage 12470.000 V;    
      secondary_voltage 480 V;    
      power_rating 55.0;     
      powerA_rating 15.0;     
      powerB_rating 25.0;     
      powerC_rating 15.0;     
      resistance 0.00182;     
      reactance 0.00909;     
      shunt_impedance 402.190+407.884j;     
}       

object transformer_configuration {     
      name C1_transformer_configuration_1347;     
      connect_type WYE_WYE;     
      install_type POLETOP;     
      primary_voltage 12470.000 V;    
      secondary_voltage 480 V;    
      power_rating 150.0;     
      powerA_rating 50.0;     
      powerB_rating 50.0;     
      powerC_rating 50.0;     
      resistance 0.00067;     
      reactance 0.00333;     
      shunt_impedance 600.360+716.117j;     
}       

object transformer_configuration {     
      name C1_transformer_configuration_1348;     
      connect_type WYE_WYE;     
      install_type POLETOP;     
      primary_voltage 12470.000 V;    
      secondary_voltage 480 V;    
      power_rating 50.0;     
      powerC_rating 50.0;     
      resistance 0.00200;     
      reactance 0.01000;     
      shunt_impedance 391.760+418.033j;     
}       

object transformer_configuration {     
      name C1_transformer_configuration_1349;     
      connect_type WYE_WYE;     
      install_type PADMOUNT;     
      primary_voltage 12470.000 V;    
      secondary_voltage 480 V;    
      power_rating 100.0;     
      powerA_rating 25.0;     
      powerB_rating 50.0;     
      powerC_rating 25.0;     
      resistance 0.00100;     
      reactance 0.00500;     
      shunt_impedance 496.060+490.598j;     
}       

object transformer_configuration {     
      name C1_transformer_configuration_1350;     
      connect_type WYE_WYE;     
      install_type PADMOUNT;     
      primary_voltage 12470.000 V;    
      secondary_voltage 480 V;    
      power_rating 412.5;     
      powerA_rating 137.5;     
      powerB_rating 137.5;     
      powerC_rating 137.5;     
      resistance 0.00024;     
      reactance 0.00121;     
      shunt_impedance 1147.935+1190.519j;     
}       

object triplex_line_conductor {     
      name C1_triplex_4/0 AA;    
      resistance 0.48;     
      geometric_mean_radius 0.0158;     
}       

object triplex_line_configuration {     
      name C1_triplex_line_configuration_1;     
      conductor_1 C1_triplex_4/0 AA;    
      conductor_2 C1_triplex_4/0 AA;    
      conductor_N C1_triplex_4/0 AA;    
      insulation_thickness 0.08;     
      diameter 0.522;     
}       

object underground_line_conductor {     
      name C1_underground_line_conductor_7;     
      //name 2 AL (Conc);   
      rating.summer.continuous 112.0;     
      outer_diameter 1.09;     
      conductor_gmr 0.0088 ft;    
      conductor_diameter 0.292;     
      conductor_resistance 1.38336;     
      neutral_gmr 0.0348162687755351 ft;    
      neutral_resistance 13.5696;     
      neutral_diameter 0.0641;     
      neutral_strands 6.0;     
      shield_gmr 0.00;     
      shield_resistance 0.00;     
}       

object underground_line_conductor {     
      name C1_underground_line_conductor_9;     
      //name 1000 CU (Conc);   
      rating.summer.continuous 662.0;     
      outer_diameter 2.291;     
      conductor_gmr 0.03592 ft;    
      conductor_diameter 1.117;     
      conductor_resistance 0.057024;     
      neutral_gmr 0.0897563211395267 ft;    
      neutral_resistance 3.44784;     
      neutral_diameter 0.1285;     
      neutral_strands 20.0;     
      shield_gmr 0.00;     
      shield_resistance 0.00;     
}       

object underground_line_conductor {     
      name C1_underground_line_conductor_13;     
      //name 1/0 AAC (Conc);   
      rating.summer.continuous 142.0;     
      outer_diameter 1.27;     
      conductor_gmr 0.01142 ft;    
      conductor_diameter 0.362;     
      conductor_resistance 0.88704;     
      neutral_gmr 0.0489686771417213 ft;    
      neutral_resistance 13.86528;     
      neutral_diameter 0.0641;     
      neutral_strands 16.0;     
      shield_gmr 0.00;     
      shield_resistance 0.00;     
}       

//Start actual feeder
object node {
	name Feeder1Inter;
	phases ABCN;
	nominal_voltage 7967.43;
	bustype SWING;
}

object switch {
	name Feeder1BreakerTie;
	phases ABCN;
	groupid sub_switch;
	from Feeder1Inter;
	to C1_R2-12-47-2_node_250;
	status CLOSED;
}
//object regulator {     
//      name C1_R2-12-47-2_reg_1;     
//      from C1_R2-12-47-2_node_253;     
//      to C1_R2-12-47-2_meter_9;     
//      phases ABCN;     
//      configuration C1_feeder_reg_cfg;     
//}       
//object regulator {     
//      name C1_R2-12-47-2_reg_2;     
//     from C1_R2-12-47-2_node_146_2;     
//      to C1_R2-12-47-2_node_90;     
//      phases ABCN;     
//      configuration C1_voltage_reg_cfg;     
//}  

// ptm changed this from regulator to switch
object switch {     
      name switch_reg_2;     
      from C1_R2-12-47-2_node_146_2;     
      to C1_R2-12-47-2_node_90;     
      phases ABCN;     
      status CLOSED;   
}     
object capacitor {     
      name C1_R2-12-47-2_cap_1;     
      phases ABCN;     
      pt_phase C;     
      parent C1_R2-12-47-2_node_6;     
      phases_connected ABC;     
      control VOLT;     
      voltage_set_high 7300;     
      voltage_set_low 7100;     
      capacitor_A 0.4 MVAr;    
      capacitor_B 0.4 MVAr;    
      capacitor_C 0.4 MVAr;    
      control_level INDIVIDUAL;     
      time_delay 30.0;     
      dwell_time 30.0;     
      cap_nominal_voltage 7200;     
      nominal_voltage 7200;     
}       
object capacitor {     
      name C1_R2-12-47-2_cap_2;     
      phases ABCN;     
      pt_phase C;     
      parent C1_R2-12-47-2_node_90;     
      phases_connected ABC;     
      control VOLT;     
      voltage_set_high 7300;     
      voltage_set_low 7100;     
      capacitor_A 0.3 MVAr;    
      capacitor_B 0.3 MVAr;    
      capacitor_C 0.3 MVAr;    
      control_level INDIVIDUAL;     
      time_delay 30.0;     
      dwell_time 30.0;     
      cap_nominal_voltage 7200;     
      nominal_voltage 7200;     
}       
object capacitor {     
      name C1_R2-12-47-2_cap_3;     
      phases ABCN;     
      pt_phase C;     
      parent C1_R2-12-47-2_node_7;     
      phases_connected ABC;     
      control VOLT;     
      voltage_set_high 7300;     
      voltage_set_low 7100;     
      capacitor_A 0.4 MVAr;    
      capacitor_B 0.4 MVAr;    
      capacitor_C 0.4 MVAr;    
      control_level INDIVIDUAL;     
      time_delay 30.0;     
      dwell_time 30.0;     
      cap_nominal_voltage 7200;     
      nominal_voltage 7200;     
}       
object capacitor {     
      name C1_R2-12-47-2_cap_4;     
      phases ABCN;     
      pt_phase C;     
      parent C1_R2-12-47-2_node_59;     
      phases_connected ABC;     
      control VOLT;     
      voltage_set_high 7300;     
      voltage_set_low 7100;     
      capacitor_A 0.4 MVAr;    
      capacitor_B 0.4 MVAr;    
      capacitor_C 0.4 MVAr;    
      control_level INDIVIDUAL;     
      time_delay 30.0;     
      dwell_time 30.0;     
      cap_nominal_voltage 7200;     
      nominal_voltage 7200;     
}       
object fuse {     
      mean_replacement_time 3600;
      name C1_R2-12-47-2_fuse_1;     
      phases AN;     
      from C1_R2-12-47-2_node_1;     
      to C1_R2-12-47-2_node_246;     
      current_limit 50000;// 100;    
      status CLOSED;     
}       
object fuse {     
      mean_replacement_time 3600;
      name C1_R2-12-47-2_fuse_2;     
      phases BN;     
      from C1_R2-12-47-2_node_8;     
      to C1_R2-12-47-2_node_100;     
      current_limit 50000;// 100;    
      status CLOSED;     
}       
object fuse {     
      mean_replacement_time 3600;
      name C1_R2-12-47-2_fuse_3;     
      phases CN;     
      from C1_R2-12-47-2_node_11;     
      to C1_R2-12-47-2_node_98;     
      current_limit 50000;// 100;    
      status CLOSED;     
}       
object fuse {     
      mean_replacement_time 3600;
      name C1_R2-12-47-2_fuse_4;     
      phases CN;     
      from C1_R2-12-47-2_node_12;     
      to C1_R2-12-47-2_node_99;     
      current_limit 50000;// 100;    
      status CLOSED;     
}       
object fuse {     
      mean_replacement_time 3600;
      name C1_R2-12-47-2_fuse_5;     
      phases BN;     
      from C1_R2-12-47-2_node_13;     
      to C1_R2-12-47-2_node_101;     
      current_limit 50000;// 50;    
      status CLOSED;     
}       
object fuse {     
      mean_replacement_time 3600;
      name C1_R2-12-47-2_fuse_6;     
      phases BCN;     
      from C1_R2-12-47-2_node_15;     
      to C1_R2-12-47-2_node_248;     
      current_limit 50000;// 125;    
      status CLOSED;     
}       
object fuse {     
      mean_replacement_time 3600;
      name C1_R2-12-47-2_fuse_7;     
      phases AN;     
      from C1_R2-12-47-2_node_16;     
      to C1_R2-12-47-2_node_113;     
      current_limit 50000;// 100;    
      status CLOSED;     
}       
object fuse {     
      mean_replacement_time 3600;
      name C1_R2-12-47-2_fuse_8;     
      phases ABCN;     
      from C1_R2-12-47-2_node_17;     
      to C1_R2-12-47-2_node_9;     
      current_limit 50000;// 100;    
      status CLOSED;     
}       
object fuse {     
      mean_replacement_time 3600;
      name C1_R2-12-47-2_fuse_9;     
      phases ABCN;     
      from C1_R2-12-47-2_node_19;     
      to C1_R2-12-47-2_node_18;     
      current_limit 50000;// 50;    
      status CLOSED;     
}       
object fuse {     
      mean_replacement_time 3600;
      name C1_R2-12-47-2_fuse_10;     
      phases AN;     
      from C1_R2-12-47-2_node_23;     
      to C1_R2-12-47-2_node_109;     
      current_limit 50000;// 50;    
      status CLOSED;     
}       
object fuse {     
      mean_replacement_time 3600;
      name C1_R2-12-47-2_fuse_11;     
      phases AN;     
      from C1_R2-12-47-2_node_24;     
      to C1_R2-12-47-2_node_21;     
      current_limit 50000;// 80;    
      status CLOSED;     
}       
object fuse {     
      mean_replacement_time 3600;
      name C1_R2-12-47-2_fuse_12;     
      phases CN;     
      from C1_R2-12-47-2_node_28;     
      to C1_R2-12-47-2_node_29;     
      current_limit 50000;// 100;    
      status CLOSED;     
}       
object fuse {     
      mean_replacement_time 3600;
      name C1_R2-12-47-2_fuse_13;     
      phases AN;     
      from C1_R2-12-47-2_node_32;     
      to C1_R2-12-47-2_node_154;     
      current_limit 50000;// 50;    
      status CLOSED;     
}       
object fuse {     
      mean_replacement_time 3600;
      name C1_R2-12-47-2_fuse_14;     
      phases ABN;     
      from C1_R2-12-47-2_node_33;     
      to C1_R2-12-47-2_node_30;     
      current_limit 50000;// 100;    
      status CLOSED;     
}       
object fuse {     
      mean_replacement_time 3600;
      name C1_R2-12-47-2_fuse_15;     
      phases ABCN;     
      from C1_R2-12-47-2_node_36;     
      to C1_R2-12-47-2_node_102;     
      current_limit 50000;// 100;    
      status CLOSED;     
}       
object fuse {     
      mean_replacement_time 3600;
      name C1_R2-12-47-2_fuse_16;     
      phases AN;     
      from C1_R2-12-47-2_node_37;     
      to C1_R2-12-47-2_node_132;     
      current_limit 50000;// 100;    
      status CLOSED;     
}       
object fuse {     
      mean_replacement_time 3600;
      name C1_R2-12-47-2_fuse_17;     
      phases AN;     
      from C1_R2-12-47-2_node_39;     
      to C1_R2-12-47-2_node_131;     
      current_limit 50000;// 100;    
      status CLOSED;     
}       
object fuse {     
      mean_replacement_time 3600;
      name C1_R2-12-47-2_fuse_18;     
      phases CN;     
      from C1_R2-12-47-2_node_40;     
      to C1_R2-12-47-2_node_229;     
      current_limit 50000;// 80;    
      status CLOSED;     
}       
object fuse {     
      mean_replacement_time 3600;
      name C1_R2-12-47-2_fuse_19;     
      phases ACN;     
      from C1_R2-12-47-2_node_42;     
      to C1_R2-12-47-2_node_67;     
      current_limit 50000;// 80;    
      status CLOSED;     
}       
object fuse {     
      mean_replacement_time 3600;
      name C1_R2-12-47-2_fuse_20;     
      phases ABCN;     
      from C1_R2-12-47-2_node_42;     
      to C1_R2-12-47-2_node_103;     
      current_limit 50000;// 80;    
      status CLOSED;     
}       
object fuse {     
      mean_replacement_time 3600;
      name C1_R2-12-47-2_fuse_21;     
      phases CN;     
      from C1_R2-12-47-2_node_44;     
      to C1_R2-12-47-2_node_50;     
      current_limit 50000;// 65;    
      status CLOSED;     
}       
object fuse {     
      mean_replacement_time 3600;
      name C1_R2-12-47-2_fuse_22;     
      phases CN;     
      from C1_R2-12-47-2_node_46;     
      to C1_R2-12-47-2_node_49;     
      current_limit 50000;// 80;    
      status CLOSED;     
}       
object fuse {     
      mean_replacement_time 3600;
      name C1_R2-12-47-2_fuse_23;     
      phases BN;     
      from C1_R2-12-47-2_node_47;     
      to C1_R2-12-47-2_node_207;     
      current_limit 50000;// 100;    
      status CLOSED;     
}       
object fuse {     
      mean_replacement_time 3600;
      name C1_R2-12-47-2_fuse_24;     
      phases BN;     
      from C1_R2-12-47-2_node_48;     
      to C1_R2-12-47-2_node_211;     
      current_limit 50000;// 65;    
      status CLOSED;     
}       
object switch{ //fuse {     
//      mean_replacement_time 3600;
      name C1_R2-12-47-2_fuse_25;     
      phases BN;     
      from C1_R2-12-47-2_node_54;     
      to C1_R2-12-47-2_node_231;     
 //     current_limit 50000;// 80;    
      status CLOSED;     
}       
object fuse {     
      mean_replacement_time 3600;
      name C1_R2-12-47-2_fuse_26;     
      phases BN;     
      from C1_R2-12-47-2_node_55;     
      to C1_R2-12-47-2_node_228;     
      current_limit 50000;// 80;    
      status CLOSED;     
}       
object fuse {     
      mean_replacement_time 3600;
      name C1_R2-12-47-2_fuse_27;     
      phases BN;     
      from C1_R2-12-47-2_node_56;     
      to C1_R2-12-47-2_node_55;     
      current_limit 50000;// 150;    
      status CLOSED;     
}       
object fuse {     
      mean_replacement_time 3600;
      name C1_R2-12-47-2_fuse_28;     
      phases ABCN;     
      from C1_R2-12-47-2_node_57;     
      to C1_R2-12-47-2_node_63;     
      current_limit 50000;// 150;    
      status CLOSED;     
}       
object fuse {     
      mean_replacement_time 3600;
      name C1_R2-12-47-2_fuse_29;     
      phases BN;     
      from C1_R2-12-47-2_node_62;     
      to C1_R2-12-47-2_node_226;     
      current_limit 50000;// 100;    
      status CLOSED;     
}       
object fuse {     
      mean_replacement_time 3600;
      name C1_R2-12-47-2_fuse_30;     
      phases CN;     
      from C1_R2-12-47-2_node_64;     
      to C1_R2-12-47-2_node_225;     
      current_limit 50000;// 80;    
      status CLOSED;     
}       
object fuse {     
      mean_replacement_time 3600;
      name C1_R2-12-47-2_fuse_31;     
      phases CN;     
      from C1_R2-12-47-2_node_65;     
      to C1_R2-12-47-2_node_66;     
      current_limit 50000;// 80;    
      status CLOSED;     
}       
object fuse {     
      mean_replacement_time 3600;
      name C1_R2-12-47-2_fuse_32;     
      phases AN;     
      from C1_R2-12-47-2_node_68;     
      to C1_R2-12-47-2_node_205;     
      current_limit 50000;// 80;    
      status CLOSED;     
}       
object fuse {     
      mean_replacement_time 3600;
      name C1_R2-12-47-2_fuse_33;     
      phases ABCN;     
      from C1_R2-12-47-2_node_69;     
      to C1_R2-12-47-2_node_183;     
      current_limit 50000;// 100;    
      status CLOSED;     
}       
object fuse {     
      mean_replacement_time 3600;
      name C1_R2-12-47-2_fuse_34;     
      phases CN;     
      from C1_R2-12-47-2_node_72;     
      to C1_R2-12-47-2_node_153;     
      current_limit 50000;// 100;    
      status CLOSED;     
}       
object fuse {     
      mean_replacement_time 3600;
      name C1_R2-12-47-2_fuse_35;     
      phases BN;     
      from C1_R2-12-47-2_node_72;     
      to C1_R2-12-47-2_node_155;     
      current_limit 50000;// 100;    
      status CLOSED;     
}       
object fuse {     
      mean_replacement_time 3600;
      name C1_R2-12-47-2_fuse_36;     
      phases AN;     
      from C1_R2-12-47-2_node_73;     
      to C1_R2-12-47-2_node_175;     
      current_limit 50000;// 100;    
      status CLOSED;     
}       
object fuse {     
      mean_replacement_time 3600;
      name C1_R2-12-47-2_fuse_37;     
      phases CN;     
      from C1_R2-12-47-2_node_74;     
      to C1_R2-12-47-2_node_177;     
      current_limit 50000;// 80;    
      status CLOSED;     
}       
object fuse {     
      mean_replacement_time 3600;
      name C1_R2-12-47-2_fuse_38;     
      phases BN;     
      from C1_R2-12-47-2_node_81;     
      to C1_R2-12-47-2_node_126;     
      current_limit 50000;// 65;    
      status CLOSED;     
}       
object fuse {     
      mean_replacement_time 3600;
      name C1_R2-12-47-2_fuse_39;     
      phases AN;     
      from C1_R2-12-47-2_node_87;     
      to C1_R2-12-47-2_node_201;     
      current_limit 50000;// 80;    
      status CLOSED;     
}       
object fuse {     
      mean_replacement_time 3600;
      name C1_R2-12-47-2_fuse_40;     
      phases CN;     
      from C1_R2-12-47-2_node_88;     
      to C1_R2-12-47-2_node_190;     
      current_limit 50000;// 80;    
      status CLOSED;     
}       
object fuse {     
      mean_replacement_time 3600;
      name C1_R2-12-47-2_fuse_41;     
      phases AN;     
      from C1_R2-12-47-2_node_88;     
      to C1_R2-12-47-2_node_195;     
      current_limit 50000;// 80;    
      status CLOSED;     
}       
object fuse {     
      mean_replacement_time 3600;
      name C1_R2-12-47-2_fuse_42;     
      phases BN;     
      from C1_R2-12-47-2_node_89;     
      to C1_R2-12-47-2_node_181;     
      current_limit 50000;// 80;    
      status CLOSED;     
}       
object fuse {     
      mean_replacement_time 3600;
      name C1_R2-12-47-2_fuse_43;     
      phases CN;     
      from C1_R2-12-47-2_node_90;     
      to C1_R2-12-47-2_node_166;     
      current_limit 50000;// 100;    
      status CLOSED;     
}       
object fuse {     
      mean_replacement_time 3600;
      name C1_R2-12-47-2_fuse_44;     
      phases CN;     
      from C1_R2-12-47-2_node_91;     
      to C1_R2-12-47-2_node_179;     
      current_limit 50000;// 100;    
      status CLOSED;     
}       
object fuse {     
      mean_replacement_time 3600;
      name C1_R2-12-47-2_fuse_45;     
      phases CN;     
      from C1_R2-12-47-2_node_91;     
      to C1_R2-12-47-2_node_185;     
      current_limit 50000;// 100;    
      status CLOSED;     
}       
object fuse {     
      mean_replacement_time 3600;
      name C1_R2-12-47-2_fuse_46;     
      phases BN;     
      from C1_R2-12-47-2_node_94;     
      to C1_R2-12-47-2_node_108;     
      current_limit 50000;// 50;    
      status CLOSED;     
}       
object fuse {     
      mean_replacement_time 3600;
      name C1_R2-12-47-2_fuse_47;     
      phases BN;     
      from C1_R2-12-47-2_node_244;     
      to C1_R2-12-47-2_node_97;     
      current_limit 50000;// 100;    
      status CLOSED;     
}       
object fuse {     
      mean_replacement_time 3600;
      name C1_R2-12-47-2_fuse_48;     
      phases BN;     
      from C1_R2-12-47-2_node_111;     
      to C1_R2-12-47-2_node_121;     
      current_limit 50000;// 100;    
      status CLOSED;     
}       
object fuse {     
      mean_replacement_time 3600;
      name C1_R2-12-47-2_fuse_49;     
      phases BN;     
      from C1_R2-12-47-2_node_112;     
      to C1_R2-12-47-2_node_35;     
      current_limit 50000;// 100;    
      status CLOSED;     
}       
object fuse {     
      mean_replacement_time 3600;
      name C1_R2-12-47-2_fuse_50;     
      phases ABCN;     
      from C1_R2-12-47-2_node_112;     
      to C1_R2-12-47-2_node_36;     
      current_limit 50000;// 150;    
...